! Generated by BlenderFDS 4.2.0 on Blender 2.79 (sub 0)
! Case: uni-build_s2 (from Blender Scene)
! Description: Faculty building, scenario 2, fire at floor +1
! Date: Fri, 11 May 2018, 16:34:13
! File: /home/egissi/git/blenderfds/examples/uni-build/uni-build.blend

&HEAD CHID='uni-build_s2' TITLE='Faculty building, scenario 2, fire at floor +1' /
&TIME T_END=0. /
&MISC FYI='Setting ambient temperature' OVERWRITE=.FALSE. THICKEN_OBSTRUCTIONS=.FALSE. TMPA=20. /
&REAC FUEL='NZ C-VM2 pre-fo' FYI='NZ C-VM2, Table 2.1, pre-flashover design fire' FORMULA='C2H4O1' CO_YIELD=0.040 SOOT_YIELD=0.070 HEAT_OF_COMBUSTION=20000.0 /
! Output is dumped every 2.00 s
&DUMP RENDER_FILE='uni-build_s2.ge1' STATUS_FILES=.TRUE. NFRAMES=600 DT_RESTART=600 /

! --- Free text: 'HEAD free text (s1, s2)'

&MATL ID='Gypsum plaster', CONDUCTIVITY=0.48,
      SPECIFIC_HEAT=0.84, DENSITY=1440. /
      Thermo-physical properties of gypsum plaster.

&PROP ID='Acme smoke detector', QUANTITY='CHAMBER OBSCURATION',
      LENGTH=1.8, ACTIVATION_OBSCURATION=3.28 /
      
&ISOF QUANTITY='TEMPERATURE', VALUE(1)=60. /
&ISOF QUANTITY='VISIBILITY', VALUE(1)=10. /
&BNDF QUANTITY='ADIABATIC SURFACE TEMPERATURE' /

! --- Boundary conditions (from Blender Materials)

! HRR(t) has a t² ramp
&SURF ID='Burner' FYI='Est.d area 5.00 m², HRR max 2000 kW, fast t² ramp (EN)' RGB=134,0,0 HRRPUA=400.000 TAU_Q=-212.1 /
&SURF ID='Glass pane' RGB=0,204,201 TRANSPARENCY=0.200 /
&SURF ID='Gypsum wall' RGB=110,111,82 MATL_ID='Gypsum plaster' THICKNESS=0.020 /

! --- Geometric entities (from Blender Objects)

! -- 00 Domain: This is the domain of simulation
! 1701000 mesh cells of size 0.250x0.250x0.250 m
&MESH ID='Domain' IJK=252,125,54 XB=-31.500,31.500,-14.750,16.500,0.000,13.500 /
! 5 planes
&VENT ID='Domain bc_0' PBX=-31.500 SURF_ID='OPEN' /
&VENT ID='Domain bc_1' PBX=31.500 SURF_ID='OPEN' /
&VENT ID='Domain bc_2' PBY=-14.750 SURF_ID='OPEN' /
&VENT ID='Domain bc_3' PBY=16.500 SURF_ID='OPEN' /
&VENT ID='Domain bc_4' PBZ=13.500 SURF_ID='OPEN' /
&VENT ID='Ground' SURF_ID='INERT' PBZ=0.000 /

&OBST ID='01 Burner at f1' FYI='5 m2 on fire' SURF_ID='Burner' XB=6.500,7.500,-1.500,-0.500,4.400,5.400 /
! -- 02 Building: 
! 10 voxels, resolution 0.100 m, in 0 s
&OBST ID='Back walls_0' XB=-2.101,-1.999,13.799,14.101,3.099,4.401 SURF_ID='Gypsum wall' /
&OBST ID='Back walls_1' XB=-2.101,-1.999,15.099,15.301,3.099,4.401 SURF_ID='Gypsum wall' /
&OBST ID='Back walls_2' XB=-2.101,2.101,15.299,15.401,3.099,4.401 SURF_ID='Gypsum wall' /
&OBST ID='Back walls_3' XB=-2.101,2.101,15.299,15.401,7.499,8.501 SURF_ID='Gypsum wall' /
&OBST ID='Back walls_4' XB=1.999,2.101,13.799,14.101,3.099,4.401 SURF_ID='Gypsum wall' /
&OBST ID='Back walls_5' XB=1.999,2.101,15.099,15.301,3.099,4.401 SURF_ID='Gypsum wall' /
&OBST ID='Back walls_6' XB=-2.101,-1.999,14.099,15.101,3.099,3.301 SURF_ID='Gypsum wall' /
&OBST ID='Back walls_7' XB=-2.101,-1.999,13.799,15.301,7.499,8.501 SURF_ID='Gypsum wall' /
&OBST ID='Back walls_8' XB=1.999,2.101,14.099,15.101,3.099,3.301 SURF_ID='Gypsum wall' /
&OBST ID='Back walls_9' XB=1.999,2.101,13.799,15.301,7.499,8.501 SURF_ID='Gypsum wall' /
! 98 voxels, resolution 0.100 m, in 0 s
&OBST ID='Columns_0' XB=-30.201,-29.799,-13.701,-13.299,-0.001,3.101 SURF_ID='Gypsum wall' /
&OBST ID='Columns_1' XB=-30.201,-29.799,-13.701,-13.299,4.399,7.501 SURF_ID='Gypsum wall' /
&OBST ID='Columns_2' XB=-30.201,-29.799,-1.701,-1.299,-0.001,3.101 SURF_ID='Gypsum wall' /
&OBST ID='Columns_3' XB=-25.201,-24.799,-13.701,-13.299,-0.001,3.101 SURF_ID='Gypsum wall' /
&OBST ID='Columns_4' XB=-25.201,-24.799,-13.701,-13.299,4.399,7.501 SURF_ID='Gypsum wall' /
&OBST ID='Columns_5' XB=-20.101,-19.799,-13.701,-13.299,-0.001,3.101 SURF_ID='Gypsum wall' /
&OBST ID='Columns_6' XB=-20.101,-19.799,-13.701,-13.299,4.399,7.501 SURF_ID='Gypsum wall' /
&OBST ID='Columns_7' XB=-15.201,-14.799,-13.701,-13.299,-0.001,3.101 SURF_ID='Gypsum wall' /
&OBST ID='Columns_8' XB=-15.201,-14.799,-13.701,-13.299,4.399,7.501 SURF_ID='Gypsum wall' /
&OBST ID='Columns_9' XB=-25.201,-24.799,-1.701,-1.299,-0.001,3.101 SURF_ID='Gypsum wall' /
&OBST ID='Columns_10' XB=-25.201,-24.799,-2.201,-1.299,4.399,7.101 SURF_ID='Gypsum wall' /
&OBST ID='Columns_11' XB=-20.201,-19.799,-2.201,-1.299,-0.001,2.701 SURF_ID='Gypsum wall' /
&OBST ID='Columns_12' XB=-20.201,-19.799,-2.201,-1.299,4.399,7.101 SURF_ID='Gypsum wall' /
&OBST ID='Columns_13' XB=-15.201,-14.799,-2.201,-1.299,-0.001,2.701 SURF_ID='Gypsum wall' /
&OBST ID='Columns_14' XB=-15.201,-14.799,-2.201,-1.299,4.399,7.101 SURF_ID='Gypsum wall' /
&OBST ID='Columns_15' XB=-10.201,-9.799,-13.701,-13.299,-0.001,3.101 SURF_ID='Gypsum wall' /
&OBST ID='Columns_16' XB=-10.201,-9.799,-13.701,-13.299,4.399,7.501 SURF_ID='Gypsum wall' /
&OBST ID='Columns_17' XB=-5.201,-4.899,-13.701,-13.299,-0.001,3.101 SURF_ID='Gypsum wall' /
&OBST ID='Columns_18' XB=-5.201,-4.899,-13.701,-13.299,4.399,7.501 SURF_ID='Gypsum wall' /
&OBST ID='Columns_19' XB=-10.201,-9.799,-2.201,-1.299,-0.001,2.701 SURF_ID='Gypsum wall' /
&OBST ID='Columns_20' XB=-10.201,-9.799,-2.201,-1.299,4.399,7.101 SURF_ID='Gypsum wall' /
&OBST ID='Columns_21' XB=-5.201,-4.799,-2.201,-1.299,-0.001,2.701 SURF_ID='Gypsum wall' /
&OBST ID='Columns_22' XB=-5.201,-4.799,-2.201,-1.299,4.399,7.101 SURF_ID='Gypsum wall' /
&OBST ID='Columns_23' XB=-30.201,-29.799,1.299,1.701,-0.001,3.101 SURF_ID='Gypsum wall' /
&OBST ID='Columns_24' XB=-30.201,-29.799,13.299,13.701,-0.001,3.101 SURF_ID='Gypsum wall' /
&OBST ID='Columns_25' XB=-30.201,-29.799,13.299,13.701,4.399,7.501 SURF_ID='Gypsum wall' /
&OBST ID='Columns_26' XB=-25.201,-24.799,1.299,1.701,-0.001,3.101 SURF_ID='Gypsum wall' /
&OBST ID='Columns_27' XB=-25.201,-24.799,1.299,2.301,4.399,7.101 SURF_ID='Gypsum wall' /
&OBST ID='Columns_28' XB=-20.201,-19.799,1.299,2.301,-0.001,2.701 SURF_ID='Gypsum wall' /
&OBST ID='Columns_29' XB=-20.201,-19.799,1.299,2.301,4.399,7.101 SURF_ID='Gypsum wall' /
&OBST ID='Columns_30' XB=-15.201,-14.799,1.299,2.301,-0.001,2.701 SURF_ID='Gypsum wall' /
&OBST ID='Columns_31' XB=-15.201,-14.799,1.299,2.301,4.399,7.101 SURF_ID='Gypsum wall' /
&OBST ID='Columns_32' XB=-25.201,-24.799,13.299,13.701,-0.001,3.101 SURF_ID='Gypsum wall' /
&OBST ID='Columns_33' XB=-25.201,-24.799,13.299,13.701,4.399,7.501 SURF_ID='Gypsum wall' /
&OBST ID='Columns_34' XB=-20.101,-19.799,13.299,13.701,-0.001,3.101 SURF_ID='Gypsum wall' /
&OBST ID='Columns_35' XB=-20.101,-19.799,13.299,13.701,4.399,7.501 SURF_ID='Gypsum wall' /
&OBST ID='Columns_36' XB=-15.201,-14.799,13.299,13.701,-0.001,3.101 SURF_ID='Gypsum wall' /
&OBST ID='Columns_37' XB=-15.201,-14.799,13.299,13.701,4.399,7.501 SURF_ID='Gypsum wall' /
&OBST ID='Columns_38' XB=-10.201,-9.799,1.299,2.301,-0.001,2.701 SURF_ID='Gypsum wall' /
&OBST ID='Columns_39' XB=-10.201,-9.799,1.299,2.301,4.399,7.101 SURF_ID='Gypsum wall' /
&OBST ID='Columns_40' XB=-5.201,-4.799,1.299,2.301,-0.001,2.701 SURF_ID='Gypsum wall' /
&OBST ID='Columns_41' XB=-5.201,-4.799,1.299,2.301,4.399,7.101 SURF_ID='Gypsum wall' /
&OBST ID='Columns_42' XB=-10.201,-9.799,13.299,13.701,-0.001,3.101 SURF_ID='Gypsum wall' /
&OBST ID='Columns_43' XB=-10.201,-9.799,13.299,13.701,4.399,7.501 SURF_ID='Gypsum wall' /
&OBST ID='Columns_44' XB=-5.201,-4.899,13.299,13.701,-0.001,3.101 SURF_ID='Gypsum wall' /
&OBST ID='Columns_45' XB=-5.201,-4.899,13.299,13.701,4.399,7.501 SURF_ID='Gypsum wall' /
&OBST ID='Columns_46' XB=-2.301,-1.999,13.399,13.701,-0.001,3.101 SURF_ID='Gypsum wall' /
&OBST ID='Columns_47' XB=-2.301,-1.999,13.399,13.701,4.399,7.501 SURF_ID='Gypsum wall' /
&OBST ID='Columns_48' XB=4.899,5.201,-13.701,-13.299,-0.001,3.101 SURF_ID='Gypsum wall' /
&OBST ID='Columns_49' XB=4.899,5.201,-13.701,-13.299,4.399,7.501 SURF_ID='Gypsum wall' /
&OBST ID='Columns_50' XB=9.799,10.201,-13.701,-13.299,-0.001,3.101 SURF_ID='Gypsum wall' /
&OBST ID='Columns_51' XB=9.799,10.201,-13.701,-13.299,4.399,7.501 SURF_ID='Gypsum wall' /
&OBST ID='Columns_52' XB=4.799,5.201,-2.201,-1.299,-0.001,2.701 SURF_ID='Gypsum wall' /
&OBST ID='Columns_53' XB=4.799,5.201,-2.201,-1.299,4.399,7.101 SURF_ID='Gypsum wall' /
&OBST ID='Columns_54' XB=9.799,10.201,-2.201,-1.299,-0.001,2.701 SURF_ID='Gypsum wall' /
&OBST ID='Columns_55' XB=9.799,10.201,-2.201,-1.299,4.399,7.101 SURF_ID='Gypsum wall' /
&OBST ID='Columns_56' XB=14.799,15.201,-13.701,-13.299,-0.001,3.101 SURF_ID='Gypsum wall' /
&OBST ID='Columns_57' XB=14.799,15.201,-13.701,-13.299,4.399,7.501 SURF_ID='Gypsum wall' /
&OBST ID='Columns_58' XB=19.799,20.101,-13.701,-13.299,-0.001,3.101 SURF_ID='Gypsum wall' /
&OBST ID='Columns_59' XB=19.799,20.101,-13.701,-13.299,4.399,7.501 SURF_ID='Gypsum wall' /
&OBST ID='Columns_60' XB=24.799,25.201,-13.701,-13.299,-0.001,3.101 SURF_ID='Gypsum wall' /
&OBST ID='Columns_61' XB=24.799,25.201,-13.701,-13.299,4.399,7.501 SURF_ID='Gypsum wall' /
&OBST ID='Columns_62' XB=14.799,15.201,-2.201,-1.299,-0.001,2.701 SURF_ID='Gypsum wall' /
&OBST ID='Columns_63' XB=14.799,15.201,-2.201,-1.299,4.399,7.101 SURF_ID='Gypsum wall' /
&OBST ID='Columns_64' XB=19.799,20.101,-2.201,-1.299,-0.001,2.701 SURF_ID='Gypsum wall' /
&OBST ID='Columns_65' XB=19.799,20.101,-2.201,-1.299,4.399,7.101 SURF_ID='Gypsum wall' /
&OBST ID='Columns_66' XB=24.799,25.201,-1.701,-1.299,-0.001,3.101 SURF_ID='Gypsum wall' /
&OBST ID='Columns_67' XB=24.799,25.201,-2.201,-1.299,4.399,7.101 SURF_ID='Gypsum wall' /
&OBST ID='Columns_68' XB=29.799,30.201,-13.701,-13.299,-0.001,3.101 SURF_ID='Gypsum wall' /
&OBST ID='Columns_69' XB=29.799,30.201,-13.701,-13.299,4.399,7.501 SURF_ID='Gypsum wall' /
&OBST ID='Columns_70' XB=29.799,30.201,-1.701,-1.299,-0.001,3.101 SURF_ID='Gypsum wall' /
&OBST ID='Columns_71' XB=29.799,30.201,-1.701,-1.299,4.399,7.501 SURF_ID='Gypsum wall' /
&OBST ID='Columns_72' XB=4.799,5.201,1.299,2.301,-0.001,2.701 SURF_ID='Gypsum wall' /
&OBST ID='Columns_73' XB=4.799,5.201,1.299,2.301,4.399,7.101 SURF_ID='Gypsum wall' /
&OBST ID='Columns_74' XB=9.799,10.201,1.299,2.301,-0.001,2.701 SURF_ID='Gypsum wall' /
&OBST ID='Columns_75' XB=9.799,10.201,1.299,2.301,4.399,7.101 SURF_ID='Gypsum wall' /
&OBST ID='Columns_76' XB=1.999,2.301,13.399,13.701,-0.001,3.101 SURF_ID='Gypsum wall' /
&OBST ID='Columns_77' XB=1.999,2.301,13.399,13.701,4.399,7.501 SURF_ID='Gypsum wall' /
&OBST ID='Columns_78' XB=4.899,5.201,13.299,13.701,-0.001,3.101 SURF_ID='Gypsum wall' /
&OBST ID='Columns_79' XB=4.899,5.201,13.299,13.701,4.399,7.501 SURF_ID='Gypsum wall' /
&OBST ID='Columns_80' XB=9.799,10.201,13.299,13.701,-0.001,3.101 SURF_ID='Gypsum wall' /
&OBST ID='Columns_81' XB=9.799,10.201,13.299,13.701,4.399,7.501 SURF_ID='Gypsum wall' /
&OBST ID='Columns_82' XB=14.799,15.201,1.299,2.301,-0.001,2.701 SURF_ID='Gypsum wall' /
&OBST ID='Columns_83' XB=14.799,15.201,1.299,2.301,4.399,7.101 SURF_ID='Gypsum wall' /
&OBST ID='Columns_84' XB=19.799,20.101,1.299,2.301,-0.001,2.701 SURF_ID='Gypsum wall' /
&OBST ID='Columns_85' XB=19.799,20.101,1.299,2.301,4.399,7.101 SURF_ID='Gypsum wall' /
&OBST ID='Columns_86' XB=24.799,25.201,1.299,1.701,-0.001,3.101 SURF_ID='Gypsum wall' /
&OBST ID='Columns_87' XB=24.799,25.201,1.299,2.301,4.399,7.101 SURF_ID='Gypsum wall' /
&OBST ID='Columns_88' XB=14.799,15.201,13.299,13.701,-0.001,3.101 SURF_ID='Gypsum wall' /
&OBST ID='Columns_89' XB=14.799,15.201,13.299,13.701,4.399,7.501 SURF_ID='Gypsum wall' /
&OBST ID='Columns_90' XB=19.799,20.101,13.299,13.701,-0.001,3.101 SURF_ID='Gypsum wall' /
&OBST ID='Columns_91' XB=19.799,20.101,13.299,13.701,4.399,7.501 SURF_ID='Gypsum wall' /
&OBST ID='Columns_92' XB=24.799,25.201,13.299,13.701,-0.001,3.101 SURF_ID='Gypsum wall' /
&OBST ID='Columns_93' XB=24.799,25.201,13.299,13.701,4.399,7.501 SURF_ID='Gypsum wall' /
&OBST ID='Columns_94' XB=29.799,30.201,1.299,1.701,-0.001,3.101 SURF_ID='Gypsum wall' /
&OBST ID='Columns_95' XB=29.799,30.201,1.299,1.701,4.399,7.501 SURF_ID='Gypsum wall' /
&OBST ID='Columns_96' XB=29.799,30.201,13.299,13.701,-0.001,3.101 SURF_ID='Gypsum wall' /
&OBST ID='Columns_97' XB=29.799,30.201,13.299,13.701,4.399,7.501 SURF_ID='Gypsum wall' /
! 91 voxels, resolution 0.100 m, in 0 s
&OBST ID='External stairs_0' XB=-35.501,-33.699,1.799,2.101,0.299,0.401 SURF_ID='Gypsum wall' /
&OBST ID='External stairs_1' XB=-35.501,-33.699,1.499,1.801,0.199,0.301 SURF_ID='Gypsum wall' /
&OBST ID='External stairs_2' XB=-35.501,-33.699,2.099,2.401,0.499,0.601 SURF_ID='Gypsum wall' /
&OBST ID='External stairs_3' XB=-35.501,-33.699,2.699,3.001,0.799,0.901 SURF_ID='Gypsum wall' /
&OBST ID='External stairs_4' XB=-35.501,-33.699,3.199,3.501,1.099,1.201 SURF_ID='Gypsum wall' /
&OBST ID='External stairs_5' XB=-35.501,-33.699,3.499,3.801,1.299,1.401 SURF_ID='Gypsum wall' /
&OBST ID='External stairs_6' XB=-35.501,-33.699,2.899,3.201,0.999,1.101 SURF_ID='Gypsum wall' /
&OBST ID='External stairs_7' XB=-35.501,-33.699,4.099,4.401,1.599,1.701 SURF_ID='Gypsum wall' /
&OBST ID='External stairs_8' XB=-35.501,-33.699,4.299,4.601,1.799,1.901 SURF_ID='Gypsum wall' /
&OBST ID='External stairs_9' XB=-35.501,-33.699,3.799,4.101,1.399,1.501 SURF_ID='Gypsum wall' /
&OBST ID='External stairs_10' XB=-35.501,-33.699,2.399,2.701,0.599,0.701 SURF_ID='Gypsum wall' /
&OBST ID='External stairs_11' XB=-32.901,-30.299,-0.401,-0.299,4.299,4.401 SURF_ID='Gypsum wall' /
&OBST ID='External stairs_12' XB=30.299,33.501,-0.401,-0.299,4.299,4.401 SURF_ID='Gypsum wall' /
&OBST ID='External stairs_13' XB=-32.801,-30.299,-0.501,-0.399,4.299,4.401 SURF_ID='Gypsum wall' /
&OBST ID='External stairs_14' XB=30.299,33.401,-0.501,-0.399,4.299,4.401 SURF_ID='Gypsum wall' /
&OBST ID='External stairs_15' XB=-33.301,-30.299,-0.001,0.101,4.299,4.401 SURF_ID='Gypsum wall' /
&OBST ID='External stairs_16' XB=30.299,33.901,-0.001,0.101,4.299,4.401 SURF_ID='Gypsum wall' /
&OBST ID='External stairs_17' XB=-33.201,-30.299,-0.101,0.001,4.299,4.401 SURF_ID='Gypsum wall' /
&OBST ID='External stairs_18' XB=30.299,33.801,-0.101,0.001,4.299,4.401 SURF_ID='Gypsum wall' /
&OBST ID='External stairs_19' XB=-33.401,-30.299,0.099,1.001,4.299,4.401 SURF_ID='Gypsum wall' /
&OBST ID='External stairs_20' XB=30.299,34.001,0.099,1.001,4.299,4.401 SURF_ID='Gypsum wall' /
&OBST ID='External stairs_21' XB=-33.101,-30.299,-0.201,-0.099,4.299,4.401 SURF_ID='Gypsum wall' /
&OBST ID='External stairs_22' XB=30.299,33.701,-0.201,-0.099,4.299,4.401 SURF_ID='Gypsum wall' /
&OBST ID='External stairs_23' XB=-33.401,-31.599,0.999,1.301,4.299,4.401 SURF_ID='Gypsum wall' /
&OBST ID='External stairs_24' XB=32.199,34.001,0.999,1.301,4.299,4.401 SURF_ID='Gypsum wall' /
&OBST ID='External stairs_25' XB=-33.001,-30.299,-0.301,-0.199,4.299,4.401 SURF_ID='Gypsum wall' /
&OBST ID='External stairs_26' XB=30.299,33.601,-0.301,-0.199,4.299,4.401 SURF_ID='Gypsum wall' /
&OBST ID='External stairs_27' XB=-33.401,-31.599,2.099,2.401,3.699,3.801 SURF_ID='Gypsum wall' /
&OBST ID='External stairs_28' XB=32.199,34.001,2.099,2.401,3.699,3.801 SURF_ID='Gypsum wall' /
&OBST ID='External stairs_29' XB=-33.401,-31.599,2.399,2.701,3.499,3.601 SURF_ID='Gypsum wall' /
&OBST ID='External stairs_30' XB=32.199,34.001,2.399,2.701,3.499,3.601 SURF_ID='Gypsum wall' /
&OBST ID='External stairs_31' XB=-33.401,-31.599,2.699,3.001,3.399,3.501 SURF_ID='Gypsum wall' /
&OBST ID='External stairs_32' XB=32.199,34.001,2.699,3.001,3.399,3.501 SURF_ID='Gypsum wall' /
&OBST ID='External stairs_33' XB=-33.401,-31.599,1.499,1.801,3.999,4.101 SURF_ID='Gypsum wall' /
&OBST ID='External stairs_34' XB=32.199,34.001,1.499,1.801,3.999,4.101 SURF_ID='Gypsum wall' /
&OBST ID='External stairs_35' XB=-33.401,-31.599,1.299,1.601,4.199,4.301 SURF_ID='Gypsum wall' /
&OBST ID='External stairs_36' XB=32.199,34.001,1.299,1.601,4.199,4.301 SURF_ID='Gypsum wall' /
&OBST ID='External stairs_37' XB=-33.401,-31.599,3.499,3.801,2.899,3.001 SURF_ID='Gypsum wall' /
&OBST ID='External stairs_38' XB=32.199,34.001,3.499,3.801,2.899,3.001 SURF_ID='Gypsum wall' /
&OBST ID='External stairs_39' XB=-33.401,-31.599,2.899,3.201,3.199,3.301 SURF_ID='Gypsum wall' /
&OBST ID='External stairs_40' XB=32.199,34.001,2.899,3.201,3.199,3.301 SURF_ID='Gypsum wall' /
&OBST ID='External stairs_41' XB=-33.401,-31.599,3.799,4.101,2.699,2.801 SURF_ID='Gypsum wall' /
&OBST ID='External stairs_42' XB=32.199,34.001,3.799,4.101,2.699,2.801 SURF_ID='Gypsum wall' /
&OBST ID='External stairs_43' XB=-33.401,-31.599,4.299,4.601,2.399,2.501 SURF_ID='Gypsum wall' /
&OBST ID='External stairs_44' XB=32.199,34.001,4.299,4.601,2.399,2.501 SURF_ID='Gypsum wall' /
&OBST ID='External stairs_45' XB=-33.401,-31.599,4.099,4.401,2.599,2.701 SURF_ID='Gypsum wall' /
&OBST ID='External stairs_46' XB=32.199,34.001,4.099,4.401,2.599,2.701 SURF_ID='Gypsum wall' /
&OBST ID='External stairs_47' XB=-33.401,-31.599,3.199,3.501,2.999,3.101 SURF_ID='Gypsum wall' /
&OBST ID='External stairs_48' XB=32.199,34.001,3.199,3.501,2.999,3.101 SURF_ID='Gypsum wall' /
&OBST ID='External stairs_49' XB=-33.401,-31.599,1.799,2.101,3.799,3.901 SURF_ID='Gypsum wall' /
&OBST ID='External stairs_50' XB=32.199,34.001,1.799,2.101,3.799,3.901 SURF_ID='Gypsum wall' /
&OBST ID='External stairs_51' XB=-32.501,-30.299,-0.801,-0.699,4.299,4.401 SURF_ID='Gypsum wall' /
&OBST ID='External stairs_52' XB=30.299,33.101,-0.801,-0.699,4.299,4.401 SURF_ID='Gypsum wall' /
&OBST ID='External stairs_53' XB=-32.401,-30.299,-0.901,-0.799,4.299,4.401 SURF_ID='Gypsum wall' /
&OBST ID='External stairs_54' XB=30.299,33.001,-0.901,-0.799,4.299,4.401 SURF_ID='Gypsum wall' /
&OBST ID='External stairs_55' XB=-32.701,-30.299,-0.601,-0.499,4.299,4.401 SURF_ID='Gypsum wall' /
&OBST ID='External stairs_56' XB=30.299,33.301,-0.601,-0.499,4.299,4.401 SURF_ID='Gypsum wall' /
&OBST ID='External stairs_57' XB=-32.301,-30.299,-1.001,-0.899,4.299,4.401 SURF_ID='Gypsum wall' /
&OBST ID='External stairs_58' XB=30.299,32.901,-1.001,-0.899,4.299,4.401 SURF_ID='Gypsum wall' /
&OBST ID='External stairs_59' XB=-32.601,-30.299,-0.701,-0.599,4.299,4.401 SURF_ID='Gypsum wall' /
&OBST ID='External stairs_60' XB=30.299,33.201,-0.701,-0.599,4.299,4.401 SURF_ID='Gypsum wall' /
&OBST ID='External stairs_61' XB=-35.501,-33.699,4.599,4.901,1.899,2.001 SURF_ID='Gypsum wall' /
&OBST ID='External stairs_62' XB=-35.501,-33.699,4.899,5.201,2.099,2.201 SURF_ID='Gypsum wall' /
&OBST ID='External stairs_63' XB=-33.401,-31.599,4.899,5.201,2.099,2.201 SURF_ID='Gypsum wall' /
&OBST ID='External stairs_64' XB=-35.501,-31.599,5.199,6.001,2.099,2.201 SURF_ID='Gypsum wall' /
&OBST ID='External stairs_65' XB=-35.501,-31.699,5.999,6.101,2.099,2.201 SURF_ID='Gypsum wall' /
&OBST ID='External stairs_66' XB=32.199,34.001,5.999,6.301,2.099,2.201 SURF_ID='Gypsum wall' /
&OBST ID='External stairs_67' XB=-35.301,-31.899,6.199,6.301,2.099,2.201 SURF_ID='Gypsum wall' /
&OBST ID='External stairs_68' XB=-35.201,-31.999,6.299,6.401,2.099,2.201 SURF_ID='Gypsum wall' /
&OBST ID='External stairs_69' XB=-35.101,-32.099,6.399,6.501,2.099,2.201 SURF_ID='Gypsum wall' /
&OBST ID='External stairs_70' XB=-34.901,-32.299,6.599,6.701,2.099,2.201 SURF_ID='Gypsum wall' /
&OBST ID='External stairs_71' XB=-34.801,-32.399,6.699,6.801,2.099,2.201 SURF_ID='Gypsum wall' /
&OBST ID='External stairs_72' XB=-34.701,-32.499,6.799,6.901,2.099,2.201 SURF_ID='Gypsum wall' /
&OBST ID='External stairs_73' XB=-35.001,-32.199,6.499,6.601,2.099,2.201 SURF_ID='Gypsum wall' /
&OBST ID='External stairs_74' XB=-34.601,-32.599,6.899,7.001,2.099,2.201 SURF_ID='Gypsum wall' /
&OBST ID='External stairs_75' XB=-35.401,-31.799,6.099,6.201,2.099,2.201 SURF_ID='Gypsum wall' /
&OBST ID='External stairs_76' XB=32.199,34.001,6.299,6.601,1.899,2.001 SURF_ID='Gypsum wall' /
&OBST ID='External stairs_77' XB=32.199,34.001,6.599,6.901,1.799,1.901 SURF_ID='Gypsum wall' /
&OBST ID='External stairs_78' XB=32.199,34.001,7.499,7.801,1.299,1.401 SURF_ID='Gypsum wall' /
&OBST ID='External stairs_79' XB=32.199,34.001,6.899,7.201,1.599,1.701 SURF_ID='Gypsum wall' /
&OBST ID='External stairs_80' XB=32.199,34.001,7.199,7.501,1.399,1.501 SURF_ID='Gypsum wall' /
&OBST ID='External stairs_81' XB=32.199,34.001,8.999,9.301,0.499,0.601 SURF_ID='Gypsum wall' /
&OBST ID='External stairs_82' XB=32.199,34.001,7.799,8.101,1.099,1.201 SURF_ID='Gypsum wall' /
&OBST ID='External stairs_83' XB=32.199,34.001,8.399,8.701,0.799,0.901 SURF_ID='Gypsum wall' /
&OBST ID='External stairs_84' XB=32.199,34.001,8.099,8.401,0.999,1.101 SURF_ID='Gypsum wall' /
&OBST ID='External stairs_85' XB=32.199,34.001,9.299,9.601,0.299,0.401 SURF_ID='Gypsum wall' /
&OBST ID='External stairs_86' XB=32.199,34.001,9.899,10.201,-0.001,0.101 SURF_ID='Gypsum wall' /
&OBST ID='External stairs_87' XB=32.199,34.001,9.599,9.901,0.199,0.301 SURF_ID='Gypsum wall' /
&OBST ID='External stairs_88' XB=32.199,34.001,8.699,9.001,0.599,0.701 SURF_ID='Gypsum wall' /
&OBST ID='External stairs_89' XB=-33.401,-31.599,4.599,4.901,2.199,2.301 SURF_ID='Gypsum wall' /
&OBST ID='External stairs_90' XB=32.199,34.001,4.599,6.001,2.199,2.301 SURF_ID='Gypsum wall' /
! 107 voxels, resolution 0.100 m, in 0 s
&OBST ID='Internal stairs_0' XB=-1.901,-0.099,9.799,10.201,4.099,4.201 SURF_ID='Gypsum wall' /
&OBST ID='Internal stairs_1' XB=-1.901,-0.099,10.099,10.501,3.899,4.001 SURF_ID='Gypsum wall' /
&OBST ID='Internal stairs_2' XB=-1.901,-0.099,9.999,10.501,3.999,4.101 SURF_ID='Gypsum wall' /
&OBST ID='Internal stairs_3' XB=-1.901,-0.099,10.499,10.801,3.699,3.801 SURF_ID='Gypsum wall' /
&OBST ID='Internal stairs_4' XB=-1.901,-0.099,10.599,11.101,3.599,3.701 SURF_ID='Gypsum wall' /
&OBST ID='Internal stairs_5' XB=-1.901,-0.099,10.299,10.801,3.799,3.901 SURF_ID='Gypsum wall' /
&OBST ID='Internal stairs_6' XB=-1.901,-0.099,11.099,11.601,3.299,3.401 SURF_ID='Gypsum wall' /
&OBST ID='Internal stairs_7' XB=-1.901,-0.099,11.299,11.601,3.199,3.301 SURF_ID='Gypsum wall' /
&OBST ID='Internal stairs_8' XB=-1.901,-0.099,10.799,11.301,3.499,3.601 SURF_ID='Gypsum wall' /
&OBST ID='Internal stairs_9' XB=-1.901,-0.099,10.999,11.301,3.399,3.501 SURF_ID='Gypsum wall' /
&OBST ID='Internal stairs_10' XB=-1.901,1.901,7.899,9.701,4.299,4.401 SURF_ID='Gypsum wall' /
&OBST ID='Internal stairs_11' XB=-1.901,-0.099,9.699,9.901,4.299,4.401 SURF_ID='Gypsum wall' /
&OBST ID='Internal stairs_12' XB=0.099,1.901,9.699,10.101,4.299,4.401 SURF_ID='Gypsum wall' /
&OBST ID='Internal stairs_13' XB=-1.901,-0.099,10.999,11.301,7.299,7.401 SURF_ID='Gypsum wall' /
&OBST ID='Internal stairs_14' XB=-1.901,-0.099,11.299,11.601,7.099,7.201 SURF_ID='Gypsum wall' /
&OBST ID='Internal stairs_15' XB=-1.901,-0.099,11.199,11.601,7.199,7.301 SURF_ID='Gypsum wall' /
&OBST ID='Internal stairs_16' XB=-1.901,-0.099,9.599,10.201,8.099,8.201 SURF_ID='Gypsum wall' /
&OBST ID='Internal stairs_17' XB=-1.901,-0.099,9.799,10.201,7.999,8.101 SURF_ID='Gypsum wall' /
&OBST ID='Internal stairs_18' XB=-1.901,-0.099,9.299,9.601,8.299,8.501 SURF_ID='Gypsum wall' /
&OBST ID='Internal stairs_19' XB=-1.901,-0.099,9.499,9.901,8.199,8.301 SURF_ID='Gypsum wall' /
&OBST ID='Internal stairs_20' XB=-1.901,-0.099,9.999,10.501,7.899,8.001 SURF_ID='Gypsum wall' /
&OBST ID='Internal stairs_21' XB=-1.901,-0.099,10.299,10.801,7.699,7.801 SURF_ID='Gypsum wall' /
&OBST ID='Internal stairs_22' XB=-1.901,-0.099,10.599,11.101,7.499,7.601 SURF_ID='Gypsum wall' /
&OBST ID='Internal stairs_23' XB=-1.901,-0.099,10.499,10.801,7.599,7.701 SURF_ID='Gypsum wall' /
&OBST ID='Internal stairs_24' XB=-1.901,-0.099,10.099,10.501,7.799,7.901 SURF_ID='Gypsum wall' /
&OBST ID='Internal stairs_25' XB=-1.901,-0.099,10.799,11.301,7.399,7.501 SURF_ID='Gypsum wall' /
&OBST ID='Internal stairs_26' XB=-1.901,-0.099,12.499,12.801,2.499,2.601 SURF_ID='Gypsum wall' /
&OBST ID='Internal stairs_27' XB=-1.901,-0.099,12.899,13.401,2.299,2.401 SURF_ID='Gypsum wall' /
&OBST ID='Internal stairs_28' XB=-1.901,-0.099,12.699,13.101,2.399,2.501 SURF_ID='Gypsum wall' /
&OBST ID='Internal stairs_29' XB=-1.901,-0.099,12.999,13.401,2.199,2.301 SURF_ID='Gypsum wall' /
&OBST ID='Internal stairs_30' XB=-1.901,-0.099,11.799,12.201,2.899,3.001 SURF_ID='Gypsum wall' /
&OBST ID='Internal stairs_31' XB=-1.901,-0.099,11.499,11.901,3.099,3.201 SURF_ID='Gypsum wall' /
&OBST ID='Internal stairs_32' XB=-1.901,-0.099,12.199,12.501,2.699,2.801 SURF_ID='Gypsum wall' /
&OBST ID='Internal stairs_33' XB=-1.901,-0.099,11.999,12.501,2.799,2.901 SURF_ID='Gypsum wall' /
&OBST ID='Internal stairs_34' XB=-1.901,-0.099,11.699,12.201,2.999,3.101 SURF_ID='Gypsum wall' /
&OBST ID='Internal stairs_35' XB=-2.001,2.001,13.799,15.301,1.999,2.201 SURF_ID='Gypsum wall' /
&OBST ID='Internal stairs_36' XB=-1.901,1.901,13.099,13.801,1.999,2.201 SURF_ID='Gypsum wall' /
&OBST ID='Internal stairs_37' XB=-1.901,-0.099,12.299,12.801,2.599,2.701 SURF_ID='Gypsum wall' /
&OBST ID='Internal stairs_38' XB=-1.901,-0.099,11.699,12.201,6.899,7.001 SURF_ID='Gypsum wall' /
&OBST ID='Internal stairs_39' XB=-1.901,-0.099,11.799,12.201,6.799,6.901 SURF_ID='Gypsum wall' /
&OBST ID='Internal stairs_40' XB=-1.901,-0.099,11.999,12.501,6.699,6.801 SURF_ID='Gypsum wall' /
&OBST ID='Internal stairs_41' XB=-1.901,-0.099,11.499,11.901,6.999,7.101 SURF_ID='Gypsum wall' /
&OBST ID='Internal stairs_42' XB=-1.901,-0.099,12.399,12.801,6.499,6.601 SURF_ID='Gypsum wall' /
&OBST ID='Internal stairs_43' XB=-1.901,-0.099,12.499,13.101,6.399,6.501 SURF_ID='Gypsum wall' /
&OBST ID='Internal stairs_44' XB=-1.901,-0.099,12.699,13.101,6.299,6.401 SURF_ID='Gypsum wall' /
&OBST ID='Internal stairs_45' XB=-1.901,-0.099,12.199,12.501,6.599,6.701 SURF_ID='Gypsum wall' /
&OBST ID='Internal stairs_46' XB=-2.001,2.001,13.799,15.301,6.299,6.501 SURF_ID='Gypsum wall' /
&OBST ID='Internal stairs_47' XB=-1.901,1.901,13.099,13.801,6.299,6.501 SURF_ID='Gypsum wall' /
&OBST ID='Internal stairs_48' XB=0.099,1.901,9.699,10.201,0.099,0.201 SURF_ID='Gypsum wall' /
&OBST ID='Internal stairs_49' XB=0.099,1.901,9.699,10.001,-0.001,0.101 SURF_ID='Gypsum wall' /
&OBST ID='Internal stairs_50' XB=0.099,1.901,10.199,10.501,0.299,0.401 SURF_ID='Gypsum wall' /
&OBST ID='Internal stairs_51' XB=0.099,1.901,10.199,10.701,0.399,0.501 SURF_ID='Gypsum wall' /
&OBST ID='Internal stairs_52' XB=0.099,1.901,10.499,10.901,0.499,0.601 SURF_ID='Gypsum wall' /
&OBST ID='Internal stairs_53' XB=0.099,1.901,10.499,11.101,0.599,0.701 SURF_ID='Gypsum wall' /
&OBST ID='Internal stairs_54' XB=0.099,1.901,10.799,11.201,0.699,0.801 SURF_ID='Gypsum wall' /
&OBST ID='Internal stairs_55' XB=0.099,1.901,11.099,11.601,0.899,1.001 SURF_ID='Gypsum wall' /
&OBST ID='Internal stairs_56' XB=0.099,1.901,11.099,11.401,0.799,0.901 SURF_ID='Gypsum wall' /
&OBST ID='Internal stairs_57' XB=0.099,1.901,9.899,10.401,0.199,0.301 SURF_ID='Gypsum wall' /
&OBST ID='Internal stairs_58' XB=0.099,1.901,11.399,11.901,1.099,1.201 SURF_ID='Gypsum wall' /
&OBST ID='Internal stairs_59' XB=0.099,1.901,11.399,11.701,0.999,1.101 SURF_ID='Gypsum wall' /
&OBST ID='Internal stairs_60' XB=0.099,1.901,9.899,10.501,4.499,4.601 SURF_ID='Gypsum wall' /
&OBST ID='Internal stairs_61' XB=0.099,1.901,9.899,10.301,4.399,4.501 SURF_ID='Gypsum wall' /
&OBST ID='Internal stairs_62' XB=0.099,1.901,10.199,10.801,4.699,4.801 SURF_ID='Gypsum wall' /
&OBST ID='Internal stairs_63' XB=0.099,1.901,10.499,11.001,4.799,4.901 SURF_ID='Gypsum wall' /
&OBST ID='Internal stairs_64' XB=0.099,1.901,10.199,10.601,4.599,4.701 SURF_ID='Gypsum wall' /
&OBST ID='Internal stairs_65' XB=0.099,1.901,10.799,11.101,4.899,5.001 SURF_ID='Gypsum wall' /
&OBST ID='Internal stairs_66' XB=0.099,1.901,11.099,11.501,5.099,5.201 SURF_ID='Gypsum wall' /
&OBST ID='Internal stairs_67' XB=0.099,1.901,11.399,11.801,5.299,5.401 SURF_ID='Gypsum wall' /
&OBST ID='Internal stairs_68' XB=0.099,1.901,11.099,11.701,5.199,5.301 SURF_ID='Gypsum wall' /
&OBST ID='Internal stairs_69' XB=0.099,1.901,10.799,11.301,4.999,5.101 SURF_ID='Gypsum wall' /
&OBST ID='Internal stairs_70' XB=0.099,1.901,11.699,12.301,1.299,1.401 SURF_ID='Gypsum wall' /
&OBST ID='Internal stairs_71' XB=0.099,1.901,11.699,12.101,1.199,1.301 SURF_ID='Gypsum wall' /
&OBST ID='Internal stairs_72' XB=0.099,1.901,11.999,12.401,1.399,1.501 SURF_ID='Gypsum wall' /
&OBST ID='Internal stairs_73' XB=0.099,1.901,12.299,12.601,1.499,1.601 SURF_ID='Gypsum wall' /
&OBST ID='Internal stairs_74' XB=0.099,1.901,12.599,12.901,1.699,1.801 SURF_ID='Gypsum wall' /
&OBST ID='Internal stairs_75' XB=0.099,1.901,12.299,12.801,1.599,1.701 SURF_ID='Gypsum wall' /
&OBST ID='Internal stairs_76' XB=0.099,1.901,12.799,13.301,1.899,2.001 SURF_ID='Gypsum wall' /
&OBST ID='Internal stairs_77' XB=0.099,1.901,12.599,13.101,1.799,1.901 SURF_ID='Gypsum wall' /
&OBST ID='Internal stairs_78' XB=0.099,1.901,11.699,12.201,5.499,5.601 SURF_ID='Gypsum wall' /
&OBST ID='Internal stairs_79' XB=0.099,1.901,11.999,12.501,5.699,5.801 SURF_ID='Gypsum wall' /
&OBST ID='Internal stairs_80' XB=0.099,1.901,11.999,12.301,5.599,5.701 SURF_ID='Gypsum wall' /
&OBST ID='Internal stairs_81' XB=0.099,1.901,11.699,12.001,5.399,5.501 SURF_ID='Gypsum wall' /
&OBST ID='Internal stairs_82' XB=0.099,1.901,12.599,12.801,5.899,6.001 SURF_ID='Gypsum wall' /
&OBST ID='Internal stairs_83' XB=0.099,1.901,12.599,13.001,5.999,6.101 SURF_ID='Gypsum wall' /
&OBST ID='Internal stairs_84' XB=0.099,1.901,12.799,13.201,6.099,6.201 SURF_ID='Gypsum wall' /
&OBST ID='Internal stairs_85' XB=0.099,1.901,12.799,13.401,6.199,6.301 SURF_ID='Gypsum wall' /
&OBST ID='Internal stairs_86' XB=0.099,1.901,12.299,12.701,5.799,5.901 SURF_ID='Gypsum wall' /
&OBST ID='Internal stairs_87' XB=-1.901,-1.799,7.999,8.701,4.199,4.301 SURF_ID='Gypsum wall' /
&OBST ID='Internal stairs_88' XB=-1.601,1.901,7.999,8.101,4.199,4.301 SURF_ID='Gypsum wall' /
&OBST ID='Internal stairs_89' XB=-1.101,1.901,8.199,8.301,4.199,4.301 SURF_ID='Gypsum wall' /
&OBST ID='Internal stairs_90' XB=-1.401,1.901,8.099,8.201,4.199,4.301 SURF_ID='Gypsum wall' /
&OBST ID='Internal stairs_91' XB=-1.901,1.901,7.899,8.001,4.199,4.301 SURF_ID='Gypsum wall' /
&OBST ID='Internal stairs_92' XB=-0.701,1.901,8.399,8.501,4.199,4.301 SURF_ID='Gypsum wall' /
&OBST ID='Internal stairs_93' XB=-0.301,1.901,8.599,8.701,4.199,4.301 SURF_ID='Gypsum wall' /
&OBST ID='Internal stairs_94' XB=-0.501,1.901,8.499,8.601,4.199,4.301 SURF_ID='Gypsum wall' /