! Generated by BlenderFDS 4.3.0 on Blender 2.79 (sub 0)
! Case: uni-build_s1 (from Blender Scene)
! Description: Faculty building, scenario 1, fire at floor 0
! Date: Sun, 23 Sep 2018, 18:41:57
! File: /home/egissi/github/blenderfds/examples/uni-build/uni-build.blend

&HEAD CHID='uni-build_s1'
      TITLE='Faculty building, scenario 1, fire at floor 0'
      /
&TIME T_END=0.
      /
&MISC FYI='Setting ambient temperature'
      THICKEN_OBSTRUCTIONS=.TRUE.
      TMPA=20.
      /
&REAC FUEL='NZ C-VM2 pre-fo'
      FYI='NZ C-VM2, Table 2.1, pre-flashover design fire'
      FORMULA='C2H4O1'
      CO_YIELD=0.040
      SOOT_YIELD=0.070
      HEAT_OF_COMBUSTION=20000.0
      /
&DUMP RENDER_FILE='uni-build_s1.ge1'
      NFRAMES=1200
      /

! --- Free text: 'HEAD free text (s1, s2)'
&MATL ID='Gypsum plaster', CONDUCTIVITY=0.48,
      SPECIFIC_HEAT=0.84, DENSITY=1440. /
      Thermo-physical properties of gypsum plaster.

&PROP ID='Acme smoke detector', QUANTITY='CHAMBER OBSCURATION',
      LENGTH=1.8, ACTIVATION_OBSCURATION=3.28 /
      
&ISOF QUANTITY='TEMPERATURE', VALUE(1)=60. /
&ISOF QUANTITY='VISIBILITY', VALUE(1)=10. /
&BNDF QUANTITY='ADIABATIC SURFACE TEMPERATURE' /

! --- Boundary conditions (from Blender Materials)
! HRR(t) has a t² ramp
&SURF ID='Burner'
      FYI='Est.d area 5.00 m², HRR max 2000 kW, fast t² ramp (EN)'
      RGB=134,0,0
      HRRPUA=400.000
      TAU_Q=-212.1
      /
&SURF ID='Glass pane'
      RGB=0,204,201
      TRANSPARENCY=0.200
      /
&SURF ID='Gypsum wall'
      RGB=110,111,82
      MATL_ID='Gypsum plaster'
      THICKNESS=0.020000
      /

! --- Geometric entities (from Blender Objects)
! -- 00 Domain: This is the domain of simulation
! 1701000 mesh cells of size 0.250x0.250x0.250 m
&MESH ID='Domain' IJK=252,125,54 XB=-31.500000,31.500000,-14.750001,16.500000,0.000000,13.500000 /
! 5 planes
&VENT ID='Domain bc_0' PBX=-31.500000 SURF_ID='OPEN' /
&VENT ID='Domain bc_1' PBX=31.500000 SURF_ID='OPEN' /
&VENT ID='Domain bc_2' PBY=-14.750001 SURF_ID='OPEN' /
&VENT ID='Domain bc_3' PBY=16.500000 SURF_ID='OPEN' /
&VENT ID='Domain bc_4' PBZ=13.500000 SURF_ID='OPEN' /
&VENT ID='Ground' SURF_ID='INERT' PBZ=0.000000 /

&OBST ID='01 Burner at f0' FYI='5 m2 on fire' SURF_ID='Burner' XB=6.500000,7.500000,-1.500000,-0.500000,0.000000,1.000000 THICKEN=.TRUE. /
! -- 02 Building: 
! 144 voxels, resolution 0.100 m, in 0.016 s
&OBST ID='Back walls_0' XB=1.999990,2.100010,15.299990,15.400010,7.499990,8.500010 SURF_ID='Gypsum wall' /
&OBST ID='Back walls_1' XB=1.999990,2.100010,15.299990,15.400010,3.099990,4.400010 SURF_ID='Gypsum wall' /
&OBST ID='Back walls_2' XB=1.999990,2.100010,15.199990,15.300010,7.499990,8.500010 SURF_ID='Gypsum wall' /
&OBST ID='Back walls_3' XB=1.999990,2.100010,15.199990,15.300010,3.099990,4.400010 SURF_ID='Gypsum wall' /
&OBST ID='Back walls_4' XB=1.999990,2.100010,15.099990,15.200010,7.499990,8.500010 SURF_ID='Gypsum wall' /
&OBST ID='Back walls_5' XB=1.999990,2.100010,15.099990,15.200010,3.099990,4.400010 SURF_ID='Gypsum wall' /
&OBST ID='Back walls_6' XB=1.999990,2.100010,14.999990,15.100010,7.499990,8.500010 SURF_ID='Gypsum wall' /
&OBST ID='Back walls_7' XB=1.999990,2.100010,14.999990,15.100010,3.099990,3.300010 SURF_ID='Gypsum wall' /
&OBST ID='Back walls_8' XB=1.999990,2.100010,14.899990,15.000010,7.499990,8.500010 SURF_ID='Gypsum wall' /
&OBST ID='Back walls_9' XB=1.999990,2.100010,14.899990,15.000010,3.099990,3.300010 SURF_ID='Gypsum wall' /
&OBST ID='Back walls_10' XB=1.999990,2.100010,14.799990,14.900010,7.499990,8.500010 SURF_ID='Gypsum wall' /
&OBST ID='Back walls_11' XB=1.999990,2.100010,14.799990,14.900010,3.099990,3.300010 SURF_ID='Gypsum wall' /
&OBST ID='Back walls_12' XB=1.999990,2.100010,14.699990,14.800010,7.499990,8.500010 SURF_ID='Gypsum wall' /
&OBST ID='Back walls_13' XB=1.999990,2.100010,14.699990,14.800010,3.099990,3.300010 SURF_ID='Gypsum wall' /
&OBST ID='Back walls_14' XB=1.999990,2.100010,14.599990,14.700010,7.499990,8.500010 SURF_ID='Gypsum wall' /
&OBST ID='Back walls_15' XB=1.999990,2.100010,14.599990,14.700010,3.099990,3.300010 SURF_ID='Gypsum wall' /
&OBST ID='Back walls_16' XB=1.999990,2.100010,14.499990,14.600010,7.499990,8.500010 SURF_ID='Gypsum wall' /
&OBST ID='Back walls_17' XB=1.999990,2.100010,14.499990,14.600010,3.099990,3.300010 SURF_ID='Gypsum wall' /
&OBST ID='Back walls_18' XB=1.999990,2.100010,14.399990,14.500010,7.499990,8.500010 SURF_ID='Gypsum wall' /
&OBST ID='Back walls_19' XB=1.999990,2.100010,14.399990,14.500010,3.099990,3.300010 SURF_ID='Gypsum wall' /
&OBST ID='Back walls_20' XB=1.999990,2.100010,14.299990,14.400010,7.499990,8.500010 SURF_ID='Gypsum wall' /
&OBST ID='Back walls_21' XB=1.999990,2.100010,14.299990,14.400010,3.099990,3.300010 SURF_ID='Gypsum wall' /
&OBST ID='Back walls_22' XB=1.999990,2.100010,14.199990,14.300010,7.499990,8.500010 SURF_ID='Gypsum wall' /
&OBST ID='Back walls_23' XB=1.999990,2.100010,14.199990,14.300010,3.099990,3.300010 SURF_ID='Gypsum wall' /
&OBST ID='Back walls_24' XB=1.999990,2.100010,14.099990,14.200010,7.499990,8.500010 SURF_ID='Gypsum wall' /
&OBST ID='Back walls_25' XB=1.999990,2.100010,14.099990,14.200010,3.099990,3.300010 SURF_ID='Gypsum wall' /
&OBST ID='Back walls_26' XB=1.999990,2.100010,13.999990,14.100010,7.499990,8.500010 SURF_ID='Gypsum wall' /
&OBST ID='Back walls_27' XB=1.999990,2.100010,13.999990,14.100010,3.099990,4.400010 SURF_ID='Gypsum wall' /
&OBST ID='Back walls_28' XB=1.999990,2.100010,13.899990,14.000010,7.499990,8.500010 SURF_ID='Gypsum wall' /
&OBST ID='Back walls_29' XB=1.999990,2.100010,13.899990,14.000010,3.099990,4.400010 SURF_ID='Gypsum wall' /
&OBST ID='Back walls_30' XB=1.999990,2.100010,13.799990,13.900010,7.499990,8.500010 SURF_ID='Gypsum wall' /
&OBST ID='Back walls_31' XB=1.999990,2.100010,13.799990,13.900010,3.099990,4.400010 SURF_ID='Gypsum wall' /
&OBST ID='Back walls_32' XB=1.899990,2.000010,15.299990,15.400010,7.499990,8.500010 SURF_ID='Gypsum wall' /
&OBST ID='Back walls_33' XB=1.899990,2.000010,15.299990,15.400010,3.099990,4.400010 SURF_ID='Gypsum wall' /
&OBST ID='Back walls_34' XB=1.799990,1.900010,15.299990,15.400010,7.499990,8.500010 SURF_ID='Gypsum wall' /
&OBST ID='Back walls_35' XB=1.799990,1.900010,15.299990,15.400010,3.099990,4.400010 SURF_ID='Gypsum wall' /
&OBST ID='Back walls_36' XB=1.699990,1.800010,15.299990,15.400010,7.499990,8.500010 SURF_ID='Gypsum wall' /
&OBST ID='Back walls_37' XB=1.699990,1.800010,15.299990,15.400010,3.099990,4.400010 SURF_ID='Gypsum wall' /
&OBST ID='Back walls_38' XB=1.599990,1.700010,15.299990,15.400010,7.499990,8.500010 SURF_ID='Gypsum wall' /
&OBST ID='Back walls_39' XB=1.599990,1.700010,15.299990,15.400010,3.099990,4.400010 SURF_ID='Gypsum wall' /
&OBST ID='Back walls_40' XB=1.499990,1.600010,15.299990,15.400010,7.499990,8.500010 SURF_ID='Gypsum wall' /
&OBST ID='Back walls_41' XB=1.499990,1.600010,15.299990,15.400010,3.099990,4.400010 SURF_ID='Gypsum wall' /
&OBST ID='Back walls_42' XB=1.399990,1.500010,15.299990,15.400010,7.499990,8.500010 SURF_ID='Gypsum wall' /
&OBST ID='Back walls_43' XB=1.399990,1.500010,15.299990,15.400010,3.099990,4.400010 SURF_ID='Gypsum wall' /
&OBST ID='Back walls_44' XB=1.299990,1.400010,15.299990,15.400010,7.499990,8.500010 SURF_ID='Gypsum wall' /
&OBST ID='Back walls_45' XB=1.299990,1.400010,15.299990,15.400010,3.099990,4.400010 SURF_ID='Gypsum wall' /
&OBST ID='Back walls_46' XB=1.199990,1.300010,15.299990,15.400010,7.499990,8.500010 SURF_ID='Gypsum wall' /
&OBST ID='Back walls_47' XB=1.199990,1.300010,15.299990,15.400010,3.099990,4.400010 SURF_ID='Gypsum wall' /
&OBST ID='Back walls_48' XB=1.099990,1.200010,15.299990,15.400010,7.499990,8.500010 SURF_ID='Gypsum wall' /
&OBST ID='Back walls_49' XB=1.099990,1.200010,15.299990,15.400010,3.099990,4.400010 SURF_ID='Gypsum wall' /
&OBST ID='Back walls_50' XB=0.999990,1.100010,15.299990,15.400010,7.499990,8.500010 SURF_ID='Gypsum wall' /
&OBST ID='Back walls_51' XB=0.999990,1.100010,15.299990,15.400010,3.099990,4.400010 SURF_ID='Gypsum wall' /
&OBST ID='Back walls_52' XB=0.899990,1.000010,15.299990,15.400010,7.499990,8.500010 SURF_ID='Gypsum wall' /
&OBST ID='Back walls_53' XB=0.899990,1.000010,15.299990,15.400010,3.099990,4.400010 SURF_ID='Gypsum wall' /
&OBST ID='Back walls_54' XB=0.799990,0.900010,15.299990,15.400010,7.499990,8.500010 SURF_ID='Gypsum wall' /
&OBST ID='Back walls_55' XB=0.799990,0.900010,15.299990,15.400010,3.099990,4.400010 SURF_ID='Gypsum wall' /
&OBST ID='Back walls_56' XB=0.699990,0.800010,15.299990,15.400010,7.499990,8.500010 SURF_ID='Gypsum wall' /
&OBST ID='Back walls_57' XB=0.699990,0.800010,15.299990,15.400010,3.099990,4.400010 SURF_ID='Gypsum wall' /
&OBST ID='Back walls_58' XB=0.599990,0.700010,15.299990,15.400010,7.499990,8.500010 SURF_ID='Gypsum wall' /
&OBST ID='Back walls_59' XB=0.599990,0.700010,15.299990,15.400010,3.099990,4.400010 SURF_ID='Gypsum wall' /
&OBST ID='Back walls_60' XB=0.499990,0.600010,15.299990,15.400010,7.499990,8.500010 SURF_ID='Gypsum wall' /
&OBST ID='Back walls_61' XB=0.499990,0.600010,15.299990,15.400010,3.099990,4.400010 SURF_ID='Gypsum wall' /
&OBST ID='Back walls_62' XB=0.399990,0.500010,15.299990,15.400010,7.499990,8.500010 SURF_ID='Gypsum wall' /
&OBST ID='Back walls_63' XB=0.399990,0.500010,15.299990,15.400010,3.099990,4.400010 SURF_ID='Gypsum wall' /
&OBST ID='Back walls_64' XB=0.299990,0.400010,15.299990,15.400010,7.499990,8.500010 SURF_ID='Gypsum wall' /
&OBST ID='Back walls_65' XB=0.299990,0.400010,15.299990,15.400010,3.099990,4.400010 SURF_ID='Gypsum wall' /
&OBST ID='Back walls_66' XB=0.199990,0.300010,15.299990,15.400010,7.499990,8.500010 SURF_ID='Gypsum wall' /
&OBST ID='Back walls_67' XB=0.199990,0.300010,15.299990,15.400010,3.099990,4.400010 SURF_ID='Gypsum wall' /
&OBST ID='Back walls_68' XB=0.099990,0.200010,15.299990,15.400010,7.499990,8.500010 SURF_ID='Gypsum wall' /
&OBST ID='Back walls_69' XB=0.099990,0.200010,15.299990,15.400010,3.099990,4.400010 SURF_ID='Gypsum wall' /
&OBST ID='Back walls_70' XB=-0.000010,0.100010,15.299990,15.400010,7.499990,8.500010 SURF_ID='Gypsum wall' /
&OBST ID='Back walls_71' XB=-0.000010,0.100010,15.299990,15.400010,3.099990,4.400010 SURF_ID='Gypsum wall' /
&OBST ID='Back walls_72' XB=-0.100010,0.000010,15.299990,15.400010,7.499990,8.500010 SURF_ID='Gypsum wall' /
&OBST ID='Back walls_73' XB=-0.100010,0.000010,15.299990,15.400010,3.099990,4.400010 SURF_ID='Gypsum wall' /
&OBST ID='Back walls_74' XB=-0.200010,-0.099990,15.299990,15.400010,7.499990,8.500010 SURF_ID='Gypsum wall' /
&OBST ID='Back walls_75' XB=-0.200010,-0.099990,15.299990,15.400010,3.099990,4.400010 SURF_ID='Gypsum wall' /
&OBST ID='Back walls_76' XB=-0.300010,-0.199990,15.299990,15.400010,7.499990,8.500010 SURF_ID='Gypsum wall' /
&OBST ID='Back walls_77' XB=-0.300010,-0.199990,15.299990,15.400010,3.099990,4.400010 SURF_ID='Gypsum wall' /
&OBST ID='Back walls_78' XB=-0.400010,-0.299990,15.299990,15.400010,7.499990,8.500010 SURF_ID='Gypsum wall' /
&OBST ID='Back walls_79' XB=-0.400010,-0.299990,15.299990,15.400010,3.099990,4.400010 SURF_ID='Gypsum wall' /
&OBST ID='Back walls_80' XB=-0.500010,-0.399990,15.299990,15.400010,7.499990,8.500010 SURF_ID='Gypsum wall' /
&OBST ID='Back walls_81' XB=-0.500010,-0.399990,15.299990,15.400010,3.099990,4.400010 SURF_ID='Gypsum wall' /
&OBST ID='Back walls_82' XB=-0.600010,-0.499990,15.299990,15.400010,7.499990,8.500010 SURF_ID='Gypsum wall' /
&OBST ID='Back walls_83' XB=-0.600010,-0.499990,15.299990,15.400010,3.099990,4.400010 SURF_ID='Gypsum wall' /
&OBST ID='Back walls_84' XB=-0.700010,-0.599990,15.299990,15.400010,7.499990,8.500010 SURF_ID='Gypsum wall' /
&OBST ID='Back walls_85' XB=-0.700010,-0.599990,15.299990,15.400010,3.099990,4.400010 SURF_ID='Gypsum wall' /
&OBST ID='Back walls_86' XB=-0.800010,-0.699990,15.299990,15.400010,7.499990,8.500010 SURF_ID='Gypsum wall' /
&OBST ID='Back walls_87' XB=-0.800010,-0.699990,15.299990,15.400010,3.099990,4.400010 SURF_ID='Gypsum wall' /
&OBST ID='Back walls_88' XB=-0.900010,-0.799990,15.299990,15.400010,7.499990,8.500010 SURF_ID='Gypsum wall' /
&OBST ID='Back walls_89' XB=-0.900010,-0.799990,15.299990,15.400010,3.099990,4.400010 SURF_ID='Gypsum wall' /
&OBST ID='Back walls_90' XB=-1.000010,-0.899990,15.299990,15.400010,7.499990,8.500010 SURF_ID='Gypsum wall' /
&OBST ID='Back walls_91' XB=-1.000010,-0.899990,15.299990,15.400010,3.099990,4.400010 SURF_ID='Gypsum wall' /
&OBST ID='Back walls_92' XB=-1.100010,-0.999990,15.299990,15.400010,7.499990,8.500010 SURF_ID='Gypsum wall' /
&OBST ID='Back walls_93' XB=-1.100010,-0.999990,15.299990,15.400010,3.099990,4.400010 SURF_ID='Gypsum wall' /
&OBST ID='Back walls_94' XB=-1.200010,-1.099990,15.299990,15.400010,7.499990,8.500010 SURF_ID='Gypsum wall' /
&OBST ID='Back walls_95' XB=-1.200010,-1.099990,15.299990,15.400010,3.099990,4.400010 SURF_ID='Gypsum wall' /
&OBST ID='Back walls_96' XB=-1.300010,-1.199990,15.299990,15.400010,7.499990,8.500010 SURF_ID='Gypsum wall' /
&OBST ID='Back walls_97' XB=-1.300010,-1.199990,15.299990,15.400010,3.099990,4.400010 SURF_ID='Gypsum wall' /
&OBST ID='Back walls_98' XB=-1.400010,-1.299990,15.299990,15.400010,7.499990,8.500010 SURF_ID='Gypsum wall' /
&OBST ID='Back walls_99' XB=-1.400010,-1.299990,15.299990,15.400010,3.099990,4.400010 SURF_ID='Gypsum wall' /
&OBST ID='Back walls_100' XB=-1.500010,-1.399990,15.299990,15.400010,7.499990,8.500010 SURF_ID='Gypsum wall' /
&OBST ID='Back walls_101' XB=-1.500010,-1.399990,15.299990,15.400010,3.099990,4.400010 SURF_ID='Gypsum wall' /
&OBST ID='Back walls_102' XB=-1.600010,-1.499990,15.299990,15.400010,7.499990,8.500010 SURF_ID='Gypsum wall' /
&OBST ID='Back walls_103' XB=-1.600010,-1.499990,15.299990,15.400010,3.099990,4.400010 SURF_ID='Gypsum wall' /
&OBST ID='Back walls_104' XB=-1.700010,-1.599990,15.299990,15.400010,7.499990,8.500010 SURF_ID='Gypsum wall' /
&OBST ID='Back walls_105' XB=-1.700010,-1.599990,15.299990,15.400010,3.099990,4.400010 SURF_ID='Gypsum wall' /
&OBST ID='Back walls_106' XB=-1.800010,-1.699990,15.299990,15.400010,7.499990,8.500010 SURF_ID='Gypsum wall' /
&OBST ID='Back walls_107' XB=-1.800010,-1.699990,15.299990,15.400010,3.099990,4.400010 SURF_ID='Gypsum wall' /
&OBST ID='Back walls_108' XB=-1.900010,-1.799990,15.299990,15.400010,7.499990,8.500010 SURF_ID='Gypsum wall' /
&OBST ID='Back walls_109' XB=-1.900010,-1.799990,15.299990,15.400010,3.099990,4.400010 SURF_ID='Gypsum wall' /
&OBST ID='Back walls_110' XB=-2.000010,-1.899990,15.299990,15.400010,7.499990,8.500010 SURF_ID='Gypsum wall' /
&OBST ID='Back walls_111' XB=-2.000010,-1.899990,15.299990,15.400010,3.099990,4.400010 SURF_ID='Gypsum wall' /
&OBST ID='Back walls_112' XB=-2.100010,-1.999990,15.299990,15.400010,7.499990,8.500010 SURF_ID='Gypsum wall' /
&OBST ID='Back walls_113' XB=-2.100010,-1.999990,15.299990,15.400010,3.099990,4.400010 SURF_ID='Gypsum wall' /
&OBST ID='Back walls_114' XB=-2.100010,-1.999990,15.199990,15.300010,7.499990,8.500010 SURF_ID='Gypsum wall' /
&OBST ID='Back walls_115' XB=-2.100010,-1.999990,15.199990,15.300010,3.099990,4.400010 SURF_ID='Gypsum wall' /
&OBST ID='Back walls_116' XB=-2.100010,-1.999990,15.099990,15.200010,7.499990,8.500010 SURF_ID='Gypsum wall' /
&OBST ID='Back walls_117' XB=-2.100010,-1.999990,15.099990,15.200010,3.099990,4.400010 SURF_ID='Gypsum wall' /
&OBST ID='Back walls_118' XB=-2.100010,-1.999990,14.999990,15.100010,7.499990,8.500010 SURF_ID='Gypsum wall' /
&OBST ID='Back walls_119' XB=-2.100010,-1.999990,14.999990,15.100010,3.099990,3.300010 SURF_ID='Gypsum wall' /
&OBST ID='Back walls_120' XB=-2.100010,-1.999990,14.899990,15.000010,7.499990,8.500010 SURF_ID='Gypsum wall' /
&OBST ID='Back walls_121' XB=-2.100010,-1.999990,14.899990,15.000010,3.099990,3.300010 SURF_ID='Gypsum wall' /
&OBST ID='Back walls_122' XB=-2.100010,-1.999990,14.799990,14.900010,7.499990,8.500010 SURF_ID='Gypsum wall' /
&OBST ID='Back walls_123' XB=-2.100010,-1.999990,14.799990,14.900010,3.099990,3.300010 SURF_ID='Gypsum wall' /
&OBST ID='Back walls_124' XB=-2.100010,-1.999990,14.699990,14.800010,7.499990,8.500010 SURF_ID='Gypsum wall' /
&OBST ID='Back walls_125' XB=-2.100010,-1.999990,14.699990,14.800010,3.099990,3.300010 SURF_ID='Gypsum wall' /
&OBST ID='Back walls_126' XB=-2.100010,-1.999990,14.599990,14.700010,7.499990,8.500010 SURF_ID='Gypsum wall' /
&OBST ID='Back walls_127' XB=-2.100010,-1.999990,14.599990,14.700010,3.099990,3.300010 SURF_ID='Gypsum wall' /
&OBST ID='Back walls_128' XB=-2.100010,-1.999990,14.499990,14.600010,7.499990,8.500010 SURF_ID='Gypsum wall' /
&OBST ID='Back walls_129' XB=-2.100010,-1.999990,14.499990,14.600010,3.099990,3.300010 SURF_ID='Gypsum wall' /
&OBST ID='Back walls_130' XB=-2.100010,-1.999990,14.399990,14.500010,7.499990,8.500010 SURF_ID='Gypsum wall' /
&OBST ID='Back walls_131' XB=-2.100010,-1.999990,14.399990,14.500010,3.099990,3.300010 SURF_ID='Gypsum wall' /
&OBST ID='Back walls_132' XB=-2.100010,-1.999990,14.299990,14.400010,7.499990,8.500010 SURF_ID='Gypsum wall' /
&OBST ID='Back walls_133' XB=-2.100010,-1.999990,14.299990,14.400010,3.099990,3.300010 SURF_ID='Gypsum wall' /
&OBST ID='Back walls_134' XB=-2.100010,-1.999990,14.199990,14.300010,7.499990,8.500010 SURF_ID='Gypsum wall' /
&OBST ID='Back walls_135' XB=-2.100010,-1.999990,14.199990,14.300010,3.099990,3.300010 SURF_ID='Gypsum wall' /
&OBST ID='Back walls_136' XB=-2.100010,-1.999990,14.099990,14.200010,7.499990,8.500010 SURF_ID='Gypsum wall' /
&OBST ID='Back walls_137' XB=-2.100010,-1.999990,14.099990,14.200010,3.099990,3.300010 SURF_ID='Gypsum wall' /
&OBST ID='Back walls_138' XB=-2.100010,-1.999990,13.999990,14.100010,7.499990,8.500010 SURF_ID='Gypsum wall' /
&OBST ID='Back walls_139' XB=-2.100010,-1.999990,13.999990,14.100010,3.099990,4.400010 SURF_ID='Gypsum wall' /
&OBST ID='Back walls_140' XB=-2.100010,-1.999990,13.899990,14.000010,7.499990,8.500010 SURF_ID='Gypsum wall' /
&OBST ID='Back walls_141' XB=-2.100010,-1.999990,13.899990,14.000010,3.099990,4.400010 SURF_ID='Gypsum wall' /
&OBST ID='Back walls_142' XB=-2.100010,-1.999990,13.799990,13.900010,7.499990,8.500010 SURF_ID='Gypsum wall' /
&OBST ID='Back walls_143' XB=-2.100010,-1.999990,13.799990,13.900010,3.099990,4.400010 SURF_ID='Gypsum wall' /
! 2102 voxels, resolution 0.100 m, in 0.190 s
&OBST ID='Columns_0' XB=30.099990,30.200010,13.599993,13.700013,4.399994,7.500014 SURF_ID='Gypsum wall' /
&OBST ID='Columns_1' XB=30.099990,30.200010,13.599993,13.700013,-0.000006,3.100014 SURF_ID='Gypsum wall' /
&OBST ID='Columns_2' XB=29.999990,30.100010,13.599993,13.700013,4.399994,7.500014 SURF_ID='Gypsum wall' /
&OBST ID='Columns_3' XB=29.999990,30.100010,13.599993,13.700013,-0.000006,3.100014 SURF_ID='Gypsum wall' /
&OBST ID='Columns_4' XB=29.899990,30.000010,13.599993,13.700013,4.399994,7.500014 SURF_ID='Gypsum wall' /
&OBST ID='Columns_5' XB=29.899990,30.000010,13.599993,13.700013,-0.000006,3.100014 SURF_ID='Gypsum wall' /
&OBST ID='Columns_6' XB=29.799990,29.900010,13.599993,13.700013,4.399994,7.500014 SURF_ID='Gypsum wall' /
&OBST ID='Columns_7' XB=29.799990,29.900010,13.599993,13.700013,-0.000006,3.100014 SURF_ID='Gypsum wall' /
&OBST ID='Columns_8' XB=25.099990,25.200010,13.599993,13.700013,4.399994,7.500014 SURF_ID='Gypsum wall' /
&OBST ID='Columns_9' XB=25.099990,25.200010,13.599993,13.700013,-0.000006,3.100014 SURF_ID='Gypsum wall' /
&OBST ID='Columns_10' XB=24.999990,25.100010,13.599993,13.700013,4.399994,7.500014 SURF_ID='Gypsum wall' /
&OBST ID='Columns_11' XB=24.999990,25.100010,13.599993,13.700013,-0.000006,3.100014 SURF_ID='Gypsum wall' /
&OBST ID='Columns_12' XB=24.899990,25.000010,13.599993,13.700013,4.399994,7.500014 SURF_ID='Gypsum wall' /
&OBST ID='Columns_13' XB=24.899990,25.000010,13.599993,13.700013,-0.000006,3.100014 SURF_ID='Gypsum wall' /
&OBST ID='Columns_14' XB=24.799990,24.900010,13.599993,13.700013,4.399994,7.500014 SURF_ID='Gypsum wall' /
&OBST ID='Columns_15' XB=24.799990,24.900010,13.599993,13.700013,-0.000006,3.100014 SURF_ID='Gypsum wall' /
&OBST ID='Columns_16' XB=19.999990,20.100010,13.599993,13.700013,4.399994,7.500014 SURF_ID='Gypsum wall' /
&OBST ID='Columns_17' XB=19.999990,20.100010,13.599993,13.700013,-0.000006,3.100014 SURF_ID='Gypsum wall' /
&OBST ID='Columns_18' XB=19.899990,20.000010,13.599993,13.700013,4.399994,7.500014 SURF_ID='Gypsum wall' /
&OBST ID='Columns_19' XB=19.899990,20.000010,13.599993,13.700013,-0.000006,3.100014 SURF_ID='Gypsum wall' /
&OBST ID='Columns_20' XB=19.799990,19.900010,13.599993,13.700013,4.399994,7.500014 SURF_ID='Gypsum wall' /
&OBST ID='Columns_21' XB=19.799990,19.900010,13.599993,13.700013,-0.000006,3.100014 SURF_ID='Gypsum wall' /
&OBST ID='Columns_22' XB=15.099990,15.200010,13.599993,13.700013,4.399994,7.500014 SURF_ID='Gypsum wall' /
&OBST ID='Columns_23' XB=15.099990,15.200010,13.599993,13.700013,-0.000006,3.100014 SURF_ID='Gypsum wall' /
&OBST ID='Columns_24' XB=14.999990,15.100010,13.599993,13.700013,4.399994,7.500014 SURF_ID='Gypsum wall' /
&OBST ID='Columns_25' XB=14.999990,15.100010,13.599993,13.700013,-0.000006,3.100014 SURF_ID='Gypsum wall' /
&OBST ID='Columns_26' XB=14.899990,15.000010,13.599993,13.700013,4.399994,7.500014 SURF_ID='Gypsum wall' /
&OBST ID='Columns_27' XB=14.899990,15.000010,13.599993,13.700013,-0.000006,3.100014 SURF_ID='Gypsum wall' /
&OBST ID='Columns_28' XB=14.799990,14.900010,13.599993,13.700013,4.399994,7.500014 SURF_ID='Gypsum wall' /
&OBST ID='Columns_29' XB=14.799990,14.900010,13.599993,13.700013,-0.000006,3.100014 SURF_ID='Gypsum wall' /
&OBST ID='Columns_30' XB=10.099989,10.200009,13.599993,13.700013,4.399994,7.500014 SURF_ID='Gypsum wall' /
&OBST ID='Columns_31' XB=10.099989,10.200009,13.599993,13.700013,-0.000006,3.100014 SURF_ID='Gypsum wall' /
&OBST ID='Columns_32' XB=9.999989,10.100009,13.599993,13.700013,4.399994,7.500014 SURF_ID='Gypsum wall' /
&OBST ID='Columns_33' XB=9.999989,10.100009,13.599993,13.700013,-0.000006,3.100014 SURF_ID='Gypsum wall' /
&OBST ID='Columns_34' XB=9.899989,10.000009,13.599993,13.700013,4.399994,7.500014 SURF_ID='Gypsum wall' /
&OBST ID='Columns_35' XB=9.899989,10.000009,13.599993,13.700013,-0.000006,3.100014 SURF_ID='Gypsum wall' /
&OBST ID='Columns_36' XB=9.799989,9.900009,13.599993,13.700013,4.399994,7.500014 SURF_ID='Gypsum wall' /
&OBST ID='Columns_37' XB=9.799989,9.900009,13.599993,13.700013,-0.000006,3.100014 SURF_ID='Gypsum wall' /
&OBST ID='Columns_38' XB=5.099989,5.200009,13.599993,13.700013,4.399994,7.500014 SURF_ID='Gypsum wall' /
&OBST ID='Columns_39' XB=5.099989,5.200009,13.599993,13.700013,-0.000006,3.100014 SURF_ID='Gypsum wall' /
&OBST ID='Columns_40' XB=4.999989,5.100009,13.599993,13.700013,4.399994,7.500014 SURF_ID='Gypsum wall' /
&OBST ID='Columns_41' XB=4.999989,5.100009,13.599993,13.700013,-0.000006,3.100014 SURF_ID='Gypsum wall' /
&OBST ID='Columns_42' XB=4.899989,5.000009,13.599993,13.700013,4.399994,7.500014 SURF_ID='Gypsum wall' /
&OBST ID='Columns_43' XB=4.899989,5.000009,13.599993,13.700013,-0.000006,3.100014 SURF_ID='Gypsum wall' /
&OBST ID='Columns_44' XB=2.199989,2.300009,13.599993,13.700013,4.399994,7.500014 SURF_ID='Gypsum wall' /
&OBST ID='Columns_45' XB=2.199989,2.300009,13.599993,13.700013,-0.000006,3.100014 SURF_ID='Gypsum wall' /
&OBST ID='Columns_46' XB=2.099989,2.200009,13.599993,13.700013,4.399994,7.500014 SURF_ID='Gypsum wall' /
&OBST ID='Columns_47' XB=2.099989,2.200009,13.599993,13.700013,-0.000006,3.100014 SURF_ID='Gypsum wall' /
&OBST ID='Columns_48' XB=1.999989,2.100009,13.599993,13.700013,4.399994,7.500014 SURF_ID='Gypsum wall' /
&OBST ID='Columns_49' XB=1.999989,2.100009,13.599993,13.700013,-0.000006,3.100014 SURF_ID='Gypsum wall' /
&OBST ID='Columns_50' XB=-2.100011,-1.999991,13.599993,13.700013,4.399994,7.500014 SURF_ID='Gypsum wall' /
&OBST ID='Columns_51' XB=-2.100011,-1.999991,13.599993,13.700013,-0.000006,3.100014 SURF_ID='Gypsum wall' /
&OBST ID='Columns_52' XB=-2.200011,-2.099991,13.599993,13.700013,4.399994,7.500014 SURF_ID='Gypsum wall' /
&OBST ID='Columns_53' XB=-2.200011,-2.099991,13.599993,13.700013,-0.000006,3.100014 SURF_ID='Gypsum wall' /
&OBST ID='Columns_54' XB=-2.300011,-2.199991,13.599993,13.700013,4.399994,7.500014 SURF_ID='Gypsum wall' /
&OBST ID='Columns_55' XB=-2.300011,-2.199991,13.599993,13.700013,-0.000006,3.100014 SURF_ID='Gypsum wall' /
&OBST ID='Columns_56' XB=-5.000011,-4.899991,13.599993,13.700013,4.399994,7.500014 SURF_ID='Gypsum wall' /
&OBST ID='Columns_57' XB=-5.000011,-4.899991,13.599993,13.700013,-0.000006,3.100014 SURF_ID='Gypsum wall' /
&OBST ID='Columns_58' XB=-5.100011,-4.999991,13.599993,13.700013,4.399994,7.500014 SURF_ID='Gypsum wall' /
&OBST ID='Columns_59' XB=-5.100011,-4.999991,13.599993,13.700013,-0.000006,3.100014 SURF_ID='Gypsum wall' /
&OBST ID='Columns_60' XB=-5.200011,-5.099991,13.599993,13.700013,4.399994,7.500014 SURF_ID='Gypsum wall' /
&OBST ID='Columns_61' XB=-5.200011,-5.099991,13.599993,13.700013,-0.000006,3.100014 SURF_ID='Gypsum wall' /
&OBST ID='Columns_62' XB=-9.900011,-9.799991,13.599993,13.700013,4.399994,7.500014 SURF_ID='Gypsum wall' /
&OBST ID='Columns_63' XB=-9.900011,-9.799991,13.599993,13.700013,-0.000006,3.100014 SURF_ID='Gypsum wall' /
&OBST ID='Columns_64' XB=-10.000011,-9.899991,13.599993,13.700013,4.399994,7.500014 SURF_ID='Gypsum wall' /
&OBST ID='Columns_65' XB=-10.000011,-9.899991,13.599993,13.700013,-0.000006,3.100014 SURF_ID='Gypsum wall' /
&OBST ID='Columns_66' XB=-10.100011,-9.999991,13.599993,13.700013,4.399994,7.500014 SURF_ID='Gypsum wall' /
&OBST ID='Columns_67' XB=-10.100011,-9.999991,13.599993,13.700013,-0.000006,3.100014 SURF_ID='Gypsum wall' /
&OBST ID='Columns_68' XB=-10.200011,-10.099991,13.599993,13.700013,4.399994,7.500014 SURF_ID='Gypsum wall' /
&OBST ID='Columns_69' XB=-10.200011,-10.099991,13.599993,13.700013,-0.000006,3.100014 SURF_ID='Gypsum wall' /
&OBST ID='Columns_70' XB=-14.900011,-14.799991,13.599993,13.700013,4.399994,7.500014 SURF_ID='Gypsum wall' /
&OBST ID='Columns_71' XB=-14.900011,-14.799991,13.599993,13.700013,-0.000006,3.100014 SURF_ID='Gypsum wall' /
&OBST ID='Columns_72' XB=-15.000011,-14.899991,13.599993,13.700013,4.399994,7.500014 SURF_ID='Gypsum wall' /
&OBST ID='Columns_73' XB=-15.000011,-14.899991,13.599993,13.700013,-0.000006,3.100014 SURF_ID='Gypsum wall' /
&OBST ID='Columns_74' XB=-15.100011,-14.999991,13.599993,13.700013,4.399994,7.500014 SURF_ID='Gypsum wall' /
&OBST ID='Columns_75' XB=-15.100011,-14.999991,13.599993,13.700013,-0.000006,3.100014 SURF_ID='Gypsum wall' /
&OBST ID='Columns_76' XB=-15.200011,-15.099991,13.599993,13.700013,4.399994,7.500014 SURF_ID='Gypsum wall' /
&OBST ID='Columns_77' XB=-15.200011,-15.099991,13.599993,13.700013,-0.000006,3.100014 SURF_ID='Gypsum wall' /
&OBST ID='Columns_78' XB=-19.900011,-19.799991,13.599993,13.700013,4.399994,7.500014 SURF_ID='Gypsum wall' /
&OBST ID='Columns_79' XB=-19.900011,-19.799991,13.599993,13.700013,-0.000006,3.100014 SURF_ID='Gypsum wall' /
&OBST ID='Columns_80' XB=-20.000011,-19.899991,13.599993,13.700013,4.399994,7.500014 SURF_ID='Gypsum wall' /
&OBST ID='Columns_81' XB=-20.000011,-19.899991,13.599993,13.700013,-0.000006,3.100014 SURF_ID='Gypsum wall' /
&OBST ID='Columns_82' XB=-20.100011,-19.999991,13.599993,13.700013,4.399994,7.500014 SURF_ID='Gypsum wall' /
&OBST ID='Columns_83' XB=-20.100011,-19.999991,13.599993,13.700013,-0.000006,3.100014 SURF_ID='Gypsum wall' /
&OBST ID='Columns_84' XB=-24.900011,-24.799991,13.599993,13.700013,4.399994,7.500014 SURF_ID='Gypsum wall' /
&OBST ID='Columns_85' XB=-24.900011,-24.799991,13.599993,13.700013,-0.000006,3.100014 SURF_ID='Gypsum wall' /
&OBST ID='Columns_86' XB=-25.000011,-24.899991,13.599993,13.700013,4.399994,7.500014 SURF_ID='Gypsum wall' /
&OBST ID='Columns_87' XB=-25.000011,-24.899991,13.599993,13.700013,-0.000006,3.100014 SURF_ID='Gypsum wall' /
&OBST ID='Columns_88' XB=-25.100011,-24.999991,13.599993,13.700013,4.399994,7.500014 SURF_ID='Gypsum wall' /
&OBST ID='Columns_89' XB=-25.100011,-24.999991,13.599993,13.700013,-0.000006,3.100014 SURF_ID='Gypsum wall' /
&OBST ID='Columns_90' XB=-25.200011,-25.099991,13.599993,13.700013,4.399994,7.500014 SURF_ID='Gypsum wall' /
&OBST ID='Columns_91' XB=-25.200011,-25.099991,13.599993,13.700013,-0.000006,3.100014 SURF_ID='Gypsum wall' /
&OBST ID='Columns_92' XB=-29.900011,-29.799991,13.599993,13.700013,4.399994,7.500014 SURF_ID='Gypsum wall' /
&OBST ID='Columns_93' XB=-29.900011,-29.799991,13.599993,13.700013,-0.000006,3.100014 SURF_ID='Gypsum wall' /
&OBST ID='Columns_94' XB=-30.000011,-29.899991,13.599993,13.700013,4.399994,7.500014 SURF_ID='Gypsum wall' /
&OBST ID='Columns_95' XB=-30.000011,-29.899991,13.599993,13.700013,-0.000006,3.100014 SURF_ID='Gypsum wall' /
&OBST ID='Columns_96' XB=-30.100011,-29.999991,13.599993,13.700013,4.399994,7.500014 SURF_ID='Gypsum wall' /
&OBST ID='Columns_97' XB=-30.100011,-29.999991,13.599993,13.700013,-0.000006,3.100014 SURF_ID='Gypsum wall' /
&OBST ID='Columns_98' XB=-30.200011,-30.099991,13.599993,13.700013,4.399994,7.500014 SURF_ID='Gypsum wall' /
&OBST ID='Columns_99' XB=-30.200011,-30.099991,13.599993,13.700013,-0.000006,3.100014 SURF_ID='Gypsum wall' /
&OBST ID='Columns_100' XB=30.099990,30.200010,13.499993,13.600013,4.399994,7.500014 SURF_ID='Gypsum wall' /
&OBST ID='Columns_101' XB=30.099990,30.200010,13.499993,13.600013,-0.000006,3.100014 SURF_ID='Gypsum wall' /
&OBST ID='Columns_102' XB=29.999990,30.100010,13.499993,13.600013,4.399994,7.500014 SURF_ID='Gypsum wall' /
&OBST ID='Columns_103' XB=29.999990,30.100010,13.499993,13.600013,-0.000006,3.100014 SURF_ID='Gypsum wall' /
&OBST ID='Columns_104' XB=29.899990,30.000010,13.499993,13.600013,4.399994,7.500014 SURF_ID='Gypsum wall' /
&OBST ID='Columns_105' XB=29.899990,30.000010,13.499993,13.600013,-0.000006,3.100014 SURF_ID='Gypsum wall' /
&OBST ID='Columns_106' XB=29.799990,29.900010,13.499993,13.600013,4.399994,7.500014 SURF_ID='Gypsum wall' /
&OBST ID='Columns_107' XB=29.799990,29.900010,13.499993,13.600013,-0.000006,3.100014 SURF_ID='Gypsum wall' /
&OBST ID='Columns_108' XB=25.099990,25.200010,13.499993,13.600013,4.399994,7.500014 SURF_ID='Gypsum wall' /